Test_Network/network_26/Lines.txt
New Line.LINE132 Bus1=11 Bus2=133 phases=3 Linecode=4c_.25 Length=1.5571 Units=m
New Line.LINE133 Bus1=132 Bus2=134 phases=3 Linecode=4c_.25 Length=1.5571 Units=m
New Line.LINE134 Bus1=133 Bus2=135 phases=3 Linecode=4c_.25 Length=7.5169 Units=m
New Line.LINE135 Bus1=133 Bus2=136 phases=3 Linecode=4c_.25 Length=7.5169 Units=m
New Line.LINE136 Bus1=135 Bus2=137 phases=3 Linecode=4c_.25 Length=1.1775 Units=m
New Line.LINE137 Bus1=135 Bus2=138 phases=3 Linecode=4c_.25 Length=1.1775 Units=m
New Line.LINE138 Bus1=137 Bus2=139 phases=3 Linecode=4c_.25 Length=0.406 Units=m
New Line.LINE139 Bus1=137 Bus2=140 phases=3 Linecode=4c_.25 Length=0.406 Units=m
New Line.LINE140 Bus1=139 Bus2=141 phases=3 Linecode=4c_.25 Length=0.38134 Units=m
New Line.LINE141 Bus1=139 Bus2=142 phases=3 Linecode=4c_.25 Length=0.38134 Units=m
New Line.LINE142 Bus1=141 Bus2=143 phases=3 Linecode=4c_.25 Length=0.41665 Units=m
New Line.LINE143 Bus1=141 Bus2=144 phases=3 Linecode=4c_.25 Length=0.41665 Units=m
New Line.LINE144 Bus1=143 Bus2=145 phases=3 Linecode=4c_.25 Length=0.2658 Units=m
New Line.LINE145 Bus1=143 Bus2=146 phases=3 Linecode=4c_.25 Length=0.2658 Units=m
New Line.LINE146 Bus1=145 Bus2=147 phases=3 Linecode=4c_.25 Length=0.2377 Units=m
New Line.LINE147 Bus1=145 Bus2=148 phases=3 Linecode=4c_.25 Length=0.2377 Units=m
New Line.LINE148 Bus1=147 Bus2=149 phases=3 Linecode=4c_.25 Length=0.23755 Units=m
New Line.LINE149 Bus1=147 Bus2=150 phases=3 Linecode=4c_.25 Length=0.23755 Units=m
New Line.LINE150 Bus1=149 Bus2=151 phases=3 Linecode=4c_.25 Length=1.0978 Units=m
New Line.LINE151 Bus1=149 Bus2=152 phases=3 Linecode=4c_.25 Length=1.0978 Units=m
New Line.LINE152 Bus1=151 Bus2=153 phases=3 Linecode=4c_.25 Length=23.3695 Units=m
New Line.LINE153 Bus1=151 Bus2=154 phases=3 Linecode=4c_.25 Length=23.3695 Units=m
New Line.LINE154 Bus1=153 Bus2=155 phases=3 Linecode=4c_.25 Length=1.9527 Units=m
New Line.LINE155 Bus1=153 Bus2=156 phases=3 Linecode=2c_.04 Length=6.7095 Units=m
New Line.LINE156 Bus1=153 Bus2=157 phases=3 Linecode=4c_.25 Length=1.9527 Units=m
New Line.LINE157 Bus1=155 Bus2=158 phases=3 Linecode=4c_.25 Length=5.6386 Units=m
New Line.LINE161 Bus1=158 Bus2=162 phases=3 Linecode=4c_.25 Length=4.8727 Units=m
New Line.LINE162 Bus1=158 Bus2=163 phases=3 Linecode=4c_.25 Length=4.8727 Units=m
New Line.LINE163 Bus1=158 Bus2=164 phases=3 Linecode=4c_.25 Length=0.3972 Units=m
New Line.LINE167 Bus1=162 Bus2=168 phases=3 Linecode=4c_.25 Length=24.3926 Units=m
New Line.LINE172 Bus1=168 Bus2=173 phases=3 Linecode=4c_.25 Length=7.4333 Units=m
New Line.LINE173 Bus1=168 Bus2=174 phases=3 Linecode=4c_.25 Length=7.4333 Units=m
New Line.LINE174 Bus1=168 Bus2=175 phases=3 Linecode=4c_.25 Length=13.0528 Units=m
New Line.LINE179 Bus1=173 Bus2=180 phases=3 Linecode=4c_.25 Length=8.054 Units=m
New Line.LINE180 Bus1=173 Bus2=181 phases=3 Linecode=4c_.25 Length=8.054 Units=m
New Line.LINE185 Bus1=180 Bus2=186 phases=3 Linecode=4c_.25 Length=3.1751 Units=m
New Line.LINE186 Bus1=180 Bus2=187 phases=3 Linecode=4c_.25 Length=3.1751 Units=m
New Line.LINE191 Bus1=186 Bus2=192 phases=3 Linecode=4c_.25 Length=3.7711 Units=m
New Line.LINE192 Bus1=186 Bus2=193 phases=3 Linecode=4c_.25 Length=3.7711 Units=m
New Line.LINE1101 Bus1=196 Bus2=1102 phases=3 Linecode=2c_.04 Length=3.3635 Units=m
New Line.LINE1103 Bus1=197 Bus2=1104 phases=3 Linecode=2c_.04 Length=4.0329 Units=m
New Line.LINE1104 Bus1=197 Bus2=1105 phases=3 Linecode=2c_.04 Length=0.71111 Units=m
New Line.LINE1105 Bus1=197 Bus2=1106 phases=3 Linecode=2c_.04 Length=0.71111 Units=m
New Line.LINE1111 Bus1=1105 Bus2=1112 phases=3 Linecode=2c_.04 Length=0.22682 Units=m
New Line.LINE1112 Bus1=1105 Bus2=1113 phases=3 Linecode=2c_.04 Length=0.22682 Units=m
New Line.LINE1114 Bus1=1107 Bus2=1115 phases=3 Linecode=4c_.25 Length=8.3151 Units=m
New Line.LINE1118 Bus1=1112 Bus2=1119 phases=3 Linecode=2c_.04 Length=0.116 Units=m
New Line.LINE1119 Bus1=1112 Bus2=1120 phases=3 Linecode=2c_.04 Length=0.116 Units=m
New Line.LINE1122 Bus1=1115 Bus2=1123 phases=3 Linecode=4c_.25 Length=4.1369 Units=m
New Line.LINE1126 Bus1=1119 Bus2=1127 phases=3 Linecode=2c_.04 Length=0.13396 Units=m
New Line.LINE1127 Bus1=1119 Bus2=1128 phases=3 Linecode=2c_.04 Length=0.13396 Units=m
New Line.LINE1130 Bus1=1123 Bus2=1131 phases=3 Linecode=2c_.04 Length=7.2512 Units=m
New Line.LINE1135 Bus1=1127 Bus2=1136 phases=3 Linecode=2c_.04 Length=0.053601 Units=m
New Line.LINE1136 Bus1=1127 Bus2=1137 phases=3 Linecode=2c_.04 Length=0.053601 Units=m
New Line.LINE1140 Bus1=1131 Bus2=1141 phases=3 Linecode=2c_.04 Length=4.6693 Units=m
New Line.LINE1145 Bus1=1136 Bus2=1146 phases=3 Linecode=2c_.04 Length=0.12468 Units=m
New Line.LINE1146 Bus1=1136 Bus2=1147 phases=3 Linecode=2c_.04 Length=0.12468 Units=m
New Line.LINE1150 Bus1=1142 Bus2=1151 phases=3 Linecode=2c_.04 Length=6.0658 Units=m
New Line.LINE1155 Bus1=1146 Bus2=1156 phases=3 Linecode=2c_.04 Length=1.4705 Units=m
New Line.LINE1207 Bus1=1198 Bus2=1208 phases=3 Linecode=4c_.25 Length=4.3073 Units=m
New Line.LINE1210 Bus1=1200 Bus2=1211 phases=3 Linecode=4c_.25 Length=11.0652 Units=m
New Line.LINE1211 Bus1=1201 Bus2=1212 phases=3 Linecode=2c_.04 Length=4.0654 Units=m
New Line.LINE1216 Bus1=1205 Bus2=1217 phases=3 Linecode=2c_.04 Length=4.0018 Units=m
New Line.LINE1224 Bus1=1211 Bus2=1225 phases=3 Linecode=4c_.25 Length=13.706 Units=m
New Line.LINE1227 Bus1=1214 Bus2=1228 phases=3 Linecode=2c_.04 Length=4.2218 Units=m
New Line.LINE1231 Bus1=1218 Bus2=1232 phases=3 Linecode=2c_.04 Length=4.2077 Units=m
New Line.LINE1239 Bus1=1225 Bus2=1240 phases=3 Linecode=4c_.25 Length=1.5617 Units=m
New Line.LINE1257 Bus1=1243 Bus2=1258 phases=3 Linecode=2c_.04 Length=5.0758 Units=m
New Line.LINE1266 Bus1=1251 Bus2=1267 phases=3 Linecode=2c_.04 Length=6.7974 Units=m
New Line.LINE1280 Bus1=1265 Bus2=1281 phases=3 Linecode=2c_.04 Length=2.815 Units=m
New Line.LINE1292 Bus1=1278 Bus2=1293 phases=3 Linecode=4c_.25 Length=9.6214 Units=m
New Line.LINE1293 Bus1=1278 Bus2=1294 phases=3 Linecode=2c_.04 Length=7.5007 Units=m
New Line.LINE1299 Bus1=1284 Bus2=1300 phases=3 Linecode=4c_.25 Length=10.3655 Units=m
New Line.LINE1309 Bus1=1294 Bus2=1310 phases=3 Linecode=2c_.04 Length=2.467 Units=m
New Line.LINE1346 Bus1=1331 Bus2=1347 phases=3 Linecode=2c_.04 Length=2.0509 Units=m
New Line.LINE1347 Bus1=1331 Bus2=1348 phases=3 Linecode=4c_.25 Length=2.0509 Units=m
New Line.LINE1348 Bus1=1331 Bus2=1349 phases=3 Linecode=4c_.25 Length=3.9607 Units=m
New Line.LINE1365 Bus1=1347 Bus2=1366 phases=3 Linecode=2c_.04 Length=7.5169 Units=m
New Line.LINE1366 Bus1=1347 Bus2=1367 phases=3 Linecode=2c_.04 Length=7.5169 Units=m
New Line.LINE1367 Bus1=1349 Bus2=1368 phases=3 Linecode=2c_.04 Length=4.3534 Units=m
New Line.LINE1384 Bus1=1366 Bus2=1385 phases=3 Linecode=2c_.04 Length=0.34637 Units=m
New Line.LINE1385 Bus1=1366 Bus2=1386 phases=3 Linecode=2c_.04 Length=0.34637 Units=m
New Line.LINE1404 Bus1=1385 Bus2=1405 phases=3 Linecode=2c_.04 Length=5.2475 Units=m
New Line.LINE1405 Bus1=1385 Bus2=1406 phases=3 Linecode=2c_.04 Length=5.2475 Units=m
New Line.LINE1424 Bus1=1405 Bus2=1425 phases=3 Linecode=2c_.04 Length=0.24271 Units=m
New Line.LINE1425 Bus1=1405 Bus2=1426 phases=3 Linecode=2c_.04 Length=0.24271 Units=m
New Line.LINE1440 Bus1=1421 Bus2=1441 phases=3 Linecode=2c_.04 Length=8.22 Units=m
New Line.LINE1441 Bus1=1421 Bus2=1442 phases=3 Linecode=2c_.04 Length=3.4826 Units=m
New Line.LINE1445 Bus1=1424 Bus2=1446 phases=3 Linecode=2c_.04 Length=4.5578 Units=m
New Line.LINE1451 Bus1=1430 Bus2=1452 phases=3 Linecode=2c_.007 Length=0.15228 Units=m
New Line.LINE1452 Bus1=1430 Bus2=1453 phases=3 Linecode=2c_.007 Length=0.15228 Units=m
New Line.LINE1453 Bus1=1430 Bus2=1454 phases=3 Linecode=4c_.25 Length=5.4735 Units=m
New Line.LINE1464 Bus1=1444 Bus2=1465 phases=3 Linecode=2c_.04 Length=4.384 Units=m
New Line.LINE1471 Bus1=1452 Bus2=1472 phases=3 Linecode=2c_.007 Length=0.191 Units=m
New Line.LINE1472 Bus1=1452 Bus2=1473 phases=3 Linecode=2c_.007 Length=0.191 Units=m
New Line.LINE1473 Bus1=1454 Bus2=1474 phases=3 Linecode=4c_.12 Length=0.30327 Units=m
New Line.LINE1474 Bus1=1454 Bus2=1475 phases=3 Linecode=4c_.25 Length=4.2746 Units=m
New Line.LINE1475 Bus1=1454 Bus2=1476 phases=3 Linecode=4c_.12 Length=0.30327 Units=m
New Line.LINE1476 Bus1=1454 Bus2=1477 phases=3 Linecode=4c_.25 Length=4.2746 Units=m
New Line.LINE1492 Bus1=1469 Bus2=1493 phases=3 Linecode=2c_25 Length=5.3207 Units=m
New Line.LINE1495 Bus1=1472 Bus2=1496 phases=3 Linecode=2c_.007 Length=0.3644 Units=m
New Line.LINE1496 Bus1=1472 Bus2=1497 phases=3 Linecode=2c_.007 Length=0.3644 Units=m
New Line.LINE1497 Bus1=1474 Bus2=1498 phases=3 Linecode=4c_.12 Length=0.099021 Units=m
New Line.LINE1498 Bus1=1474 Bus2=1499 phases=3 Linecode=4c_.12 Length=0.099021 Units=m
New Line.LINE1499 Bus1=1475 Bus2=1500 phases=3 Linecode=4c_.25 Length=11.1591 Units=m
New Line.LINE1500 Bus1=1475 Bus2=1501 phases=3 Linecode=4c_.25 Length=11.1591 Units=m
New Line.LINE1506 Bus1=1483 Bus2=1507 phases=3 Linecode=3c_.04 Length=3.5235 Units=m
New Line.LINE1517 Bus1=1494 Bus2=1518 phases=3 Linecode=2c_25 Length=6.9692 Units=m
New Line.LINE1519 Bus1=1496 Bus2=1520 phases=3 Linecode=2c_.007 Length=0.229 Units=m
New Line.LINE1520 Bus1=1496 Bus2=1521 phases=3 Linecode=2c_.007 Length=0.229 Units=m
New Line.LINE1521 Bus1=1498 Bus2=1522 phases=3 Linecode=4c_.12 Length=0.14776 Units=m
New Line.LINE1522 Bus1=1498 Bus2=1523 phases=3 Linecode=4c_.12 Length=0.14776 Units=m
New Line.LINE1523 Bus1=1500 Bus2=1524 phases=3 Linecode=4c_.25 Length=2.0969 Units=m
New Line.LINE1524 Bus1=1500 Bus2=1525 phases=3 Linecode=4c_.25 Length=2.0969 Units=m
New Line.LINE1527 Bus1=1504 Bus2=1528 phases=3 Linecode=2c_.04 Length=7.2537 Units=m
New Line.LINE1528 Bus1=1504 Bus2=1529 phases=3 Linecode=4c_.06 Length=1.6403 Units=m
New Line.LINE1530 Bus1=1505 Bus2=1531 phases=3 Linecode=3c_.04 Length=5.3906 Units=m
New Line.LINE1543 Bus1=1520 Bus2=1544 phases=3 Linecode=2c_.007 Length=1.58 Units=m
New Line.LINE1544 Bus1=1520 Bus2=1545 phases=3 Linecode=2c_.007 Length=1.58 Units=m
New Line.LINE1545 Bus1=1522 Bus2=1546 phases=3 Linecode=4c_.12 Length=0.23526 Units=m
New Line.LINE1546 Bus1=1522 Bus2=1547 phases=3 Linecode=4c_.12 Length=0.23526 Units=m
New Line.LINE1547 Bus1=1524 Bus2=1548 phases=3 Linecode=4c_.06 Length=0.19488 Units=m
New Line.LINE1548 Bus1=1524 Bus2=1549 phases=3 Linecode=4c_.25 Length=4.4845 Units=m
New Line.LINE1549 Bus1=1524 Bus2=1550 phases=3 Linecode=4c_.06 Length=0.19488 Units=m
New Line.LINE1559 Bus1=1534 Bus2=1560 phases=3 Linecode=2c_.04 Length=4.8635 Units=m
New Line.LINE1569 Bus1=1544 Bus2=1570 phases=3 Linecode=2c_.007 Length=7.2733 Units=m
New Line.LINE1570 Bus1=1544 Bus2=1571 phases=3 Linecode=2c_.007 Length=7.2733 Units=m
New Line.LINE1571 Bus1=1546 Bus2=1572 phases=3 Linecode=4c_.12 Length=0.12778 Units=m
New Line.LINE1572 Bus1=1546 Bus2=1573 phases=3 Linecode=4c_.12 Length=0.12778 Units=m
New Line.LINE1573 Bus1=1548 Bus2=1574 phases=3 Linecode=4c_.06 Length=0.226 Units=m
New Line.LINE1574 Bus1=1548 Bus2=1575 phases=3 Linecode=4c_.06 Length=0.226 Units=m
New Line.LINE1576 Bus1=1549 Bus2=1577 phases=3 Linecode=4c_.25 Length=8.2993 Units=m
New Line.LINE1589 Bus1=1565 Bus2=1590 phases=3 Linecode=2c_.04 Length=3.7153 Units=m
New Line.LINE1595 Bus1=1570 Bus2=1596 phases=3 Linecode=2c_.007 Length=0.63434 Units=m
New Line.LINE1596 Bus1=1570 Bus2=1597 phases=3 Linecode=2c_.007 Length=0.63434 Units=m
New Line.LINE1597 Bus1=1572 Bus2=1598 phases=3 Linecode=4c_.12 Length=0.14674 Units=m
New Line.LINE1598 Bus1=1572 Bus2=1599 phases=3 Linecode=4c_.12 Length=0.14674 Units=m
New Line.LINE1599 Bus1=1574 Bus2=1600 phases=3 Linecode=4c_.06 Length=0.26816 Units=m
New Line.LINE1600 Bus1=1574 Bus2=1601 phases=3 Linecode=4c_.06 Length=0.26816 Units=m
New Line.LINE1602 Bus1=1577 Bus2=1603 phases=3 Linecode=2c_.04 Length=8.5981 Units=m
New Line.LINE1603 Bus1=1577 Bus2=1604 phases=3 Linecode=4c_.25 Length=4.3797 Units=m
New Line.LINE1604 Bus1=1577 Bus2=1605 phases=3 Linecode=2c_.04 Length=8.5981 Units=m
New Line.LINE1619 Bus1=1592 Bus2=1620 phases=3 Linecode=2c_.04 Length=4.7061 Units=m
New Line.LINE1620 Bus1=1592 Bus2=1621 phases=3 Linecode=2c_.04 Length=0.44411 Units=m
New Line.LINE1621 Bus1=1592 Bus2=1622 phases=3 Linecode=2c_.04 Length=0.44411 Units=m
New Line.LINE1624 Bus1=1596 Bus2=1625 phases=3 Linecode=2c_.007 Length=0.12503 Units=m
New Line.LINE1625 Bus1=1596 Bus2=1626 phases=3 Linecode=2c_.007 Length=0.12503 Units=m
New Line.LINE1626 Bus1=1598 Bus2=1627 phases=3 Linecode=4c_.12 Length=0.15532 Units=m
New Line.LINE1627 Bus1=1598 Bus2=1628 phases=3 Linecode=4c_.12 Length=0.15532 Units=m
New Line.LINE1628 Bus1=1600 Bus2=1629 phases=3 Linecode=4c_.06 Length=1.6267 Units=m
New Line.LINE1629 Bus1=1600 Bus2=1630 phases=3 Linecode=4c_.06 Length=1.6267 Units=m
New Line.LINE1631 Bus1=1603 Bus2=1632 phases=3 Linecode=2c_.04 Length=0.34075 Units=m
New Line.LINE1632 Bus1=1603 Bus2=1633 phases=3 Linecode=2c_.04 Length=0.34075 Units=m
New Line.LINE1634 Bus1=1604 Bus2=1635 phases=3 Linecode=4c_.25 Length=11.0783 Units=m
New Line.LINE1638 Bus1=1609 Bus2=1639 phases=3 Linecode=4c_.04 Length=1.1767 Units=m
New Line.LINE1650 Bus1=1621 Bus2=1651 phases=3 Linecode=2c_.04 Length=0.31851 Units=m
New Line.LINE1651 Bus1=1621 Bus2=1652 phases=3 Linecode=2c_.04 Length=0.31851 Units=m
New Line.LINE1654 Bus1=1625 Bus2=1655 phases=3 Linecode=2c_.007 Length=0.12458 Units=m
New Line.LINE1655 Bus1=1625 Bus2=1656 phases=3 Linecode=2c_.007 Length=0.12458 Units=m
New Line.LINE1656 Bus1=1627 Bus2=1657 phases=3 Linecode=4c_.12 Length=0.22547 Units=m
New Line.LINE1657 Bus1=1627 Bus2=1658 phases=3 Linecode=4c_.12 Length=0.22547 Units=m
New Line.LINE1658 Bus1=1629 Bus2=1659 phases=3 Linecode=4c_.06 Length=0.65031 Units=m
New Line.LINE1659 Bus1=1629 Bus2=1660 phases=3 Linecode=4c_.06 Length=0.65031 Units=m
New Line.LINE1661 Bus1=1632 Bus2=1662 phases=3 Linecode=2c_.04 Length=0.47823 Units=m
New Line.LINE1662 Bus1=1632 Bus2=1663 phases=3 Linecode=2c_.04 Length=0.47823 Units=m
New Line.LINE1665 Bus1=1635 Bus2=1666 phases=3 Linecode=4c_.25 Length=7.5621 Units=m
New Line.LINE1668 Bus1=1639 Bus2=1669 phases=3 Linecode=4c_.04 Length=7.8365 Units=m
New Line.LINE1681 Bus1=1651 Bus2=1682 phases=3 Linecode=2c_.04 Length=0.2201 Units=m
New Line.LINE1682 Bus1=1651 Bus2=1683 phases=3 Linecode=2c_.04 Length=0.2201 Units=m
New Line.LINE1685 Bus1=1655 Bus2=1686 phases=3 Linecode=2c_.007 Length=0.12925 Units=m
New Line.LINE1686 Bus1=1655 Bus2=1687 phases=3 Linecode=2c_.007 Length=0.12925 Units=m
New Line.LINE1687 Bus1=1657 Bus2=1688 phases=3 Linecode=4c_.12 Length=1.4748 Units=m
New Line.LINE1688 Bus1=1657 Bus2=1689 phases=3 Linecode=4c_.12 Length=1.4748 Units=m
New Line.LINE1689 Bus1=1659 Bus2=1690 phases=3 Linecode=4c_.06 Length=0.45069 Units=m
New Line.LINE1690 Bus1=1659 Bus2=1691 phases=3 Linecode=4c_.06 Length=0.45069 Units=m
New Line.LINE1692 Bus1=1662 Bus2=1693 phases=3 Linecode=2c_.04 Length=0.2706 Units=m
New Line.LINE1693 Bus1=1662 Bus2=1694 phases=3 Linecode=2c_.04 Length=0.2706 Units=m
New Line.LINE1699 Bus1=1667 Bus2=1700 phases=3 Linecode=2c_.04 Length=5.4667 Units=m
New Line.LINE1701 Bus1=1668 Bus2=1702 phases=3 Linecode=2c_.04 Length=4.8917 Units=m
New Line.LINE1702 Bus1=1669 Bus2=1703 phases=3 Linecode=16_PSC Length=7.7524 Units=m
New Line.LINE1714 Bus1=1682 Bus2=1715 phases=3 Linecode=2c_.04 Length=0.10576 Units=m
New Line.LINE1715 Bus1=1682 Bus2=1716 phases=3 Linecode=2c_.04 Length=0.10576 Units=m
New Line.LINE1718 Bus1=1686 Bus2=1719 phases=3 Linecode=2c_.007 Length=1.0665 Units=m
New Line.LINE1719 Bus1=1686 Bus2=1720 phases=3 Linecode=2c_.007 Length=1.0665 Units=m
New Line.LINE1720 Bus1=1688 Bus2=1721 phases=3 Linecode=4c_.12 Length=1.9575 Units=m
New Line.LINE1721 Bus1=1688 Bus2=1722 phases=3 Linecode=4c_.12 Length=1.9575 Units=m
New Line.LINE1722 Bus1=1690 Bus2=1723 phases=3 Linecode=4c_.06 Length=0.44106 Units=m
New Line.LINE1723 Bus1=1690 Bus2=1724 phases=3 Linecode=4c_.06 Length=0.44106 Units=m
New Line.LINE1725 Bus1=1693 Bus2=1726 phases=3 Linecode=2c_.04 Length=0.24613 Units=m
New Line.LINE1726 Bus1=1693 Bus2=1727 phases=3 Linecode=2c_.04 Length=0.24613 Units=m
New Line.LINE1745 Bus1=1715 Bus2=1746 phases=3 Linecode=2c_.04 Length=0.2415 Units=m
New Line.LINE1746 Bus1=1715 Bus2=1747 phases=3 Linecode=2c_.04 Length=0.2415 Units=m
New Line.LINE1749 Bus1=1721 Bus2=1750 phases=3 Linecode=4c_.12 Length=2.7016 Units=m
New Line.LINE1750 Bus1=1721 Bus2=1751 phases=3 Linecode=4c_.12 Length=2.7016 Units=m
New Line.LINE1751 Bus1=1723 Bus2=1752 phases=3 Linecode=4c_.06 Length=0.52274 Units=m
New Line.LINE1752 Bus1=1723 Bus2=1753 phases=3 Linecode=4c_.06 Length=0.52274 Units=m
New Line.LINE1754 Bus1=1726 Bus2=1755 phases=3 Linecode=2c_.04 Length=0.16737 Units=m
New Line.LINE1755 Bus1=1726 Bus2=1756 phases=3 Linecode=2c_.04 Length=0.16737 Units=m
New Line.LINE1775 Bus1=1746 Bus2=1776 phases=3 Linecode=2c_.04 Length=6.3121 Units=m
New Line.LINE1776 Bus1=1746 Bus2=1777 phases=3 Linecode=2c_.04 Length=6.3121 Units=m
...
